 1000.00     300.00       0.00
   10.00     300.00       0.00       1.00      0.00
  250.00     300.45       0.00       1.00      0.00
  750.00     301.25       0.00       1.00      0.00
 1250.00     302.00       0.00       1.00      0.00
 1750.00     303.93       0.00       1.00      0.00
 2250.00     305.00       0.00       1.00      0.00
 2750.00     306.00       0.00       1.00      0.00
 3250.00     308.00       0.00       1.00      0.00
 3750.00     310.00       0.00       1.00      0.00     
 4250.00     311.00       0.00       1.00      0.00
 4750.00     313.00       0.00       1.00      0.00
